61

C      5.444000   69.561000   60.996000
C      4.280000   69.269000   61.900000
C      4.434000   69.290000   63.275000
C      3.329000   69.044000   64.070000
C      3.405000   69.116000   65.572000
N      3.350000   67.804000   66.270000
H      2.928000   67.162000   65.609000
C      2.427000   67.836000   67.459000
C      3.142000   67.749000   68.806000
C      4.003000   66.479000   68.925000
C      3.100000   65.302000   69.331000
C      3.888000   64.052000   69.743000
C      3.524000   62.813000   68.967000
O      3.810000   62.759000   67.795000
C      2.913000   61.689000   69.646000
C      1.880000   61.883000   70.583000
C      1.343000   60.813000   71.282000
C      1.829000   59.510000   71.076000
C      1.345000   58.352000   71.795000
C      0.247000   58.482000   72.833000
C      1.892000   57.140000   71.527000
C      2.919000   56.992000   70.526000
O      3.421000   55.933000   70.192000
O      3.367000   58.094000   69.889000
C      2.848000   59.337000   70.124000
C      3.376000   60.397000   69.402000
C      4.758000   66.147000   67.611000
C      4.727000   67.281000   66.585000
N      2.161000   68.769000   63.506000
C      2.055000   68.775000   62.178000
C      0.690000   68.549000   61.574000
N      3.088000   69.013000   61.371000
H      5.113000   69.663000   59.964000
H      6.184000   68.766000   61.071000
H      5.924000   70.492000   61.285000
H      5.377000   69.507000   63.707000
H      4.292000   69.671000   65.847000
H      2.596000   69.755000   65.899000
H      1.802000   68.719000   67.457000
H      1.720000   67.019000   67.411000
H      3.770000   68.630000   68.914000
H      2.408000   67.772000   69.605000
H      4.731000   66.649000   69.720000
H      2.478000   65.593000   70.177000
H      2.424000   65.061000   68.508000
H      3.726000   63.872000   70.792000
H      4.954000   64.217000   69.657000
H      1.504000   62.859000   70.757000
H      0.565000   60.988000   71.979000
H      0.553000   59.124000   73.648000
H     -0.653000   58.898000   72.402000
H     -0.021000   57.527000   73.263000
H      1.578000   56.268000   72.039000
H      4.141000   60.224000   68.689000
H      4.310000   65.280000   67.126000
H      5.795000   65.901000   67.840000
H      5.245000   66.960000   65.691000
H      5.346000   68.075000   66.976000
H      0.016000   69.354000   61.866000
H      0.259000   67.613000   61.928000
H      0.739000   68.531000   60.486000
