739
1EVE.A
C     -8.294000   64.577000   63.916000
H     -7.499100   63.897600   63.608200
H     -8.219000   65.504800   63.348800
H     -9.262000   64.112900   63.727100
C     -8.157000   64.878000   65.401000
O     -8.948000   65.626000   65.972000
N     -7.129000   64.293000   66.008000
H     -6.533000   63.682000   65.468000
C     -6.826000   64.495000   67.418000
H     -7.709000   64.362000   68.043000
C     -6.290000   65.917000   67.560000
O     -5.520000   66.383000   66.717000
C     -5.769000   63.463000   67.845000
H     -4.964000   63.465000   67.110000
H     -6.218000   62.469000   67.828000
C     -5.155000   63.704000   69.213000
C     -5.766000   63.186000   70.371000
H     -6.682000   62.617000   70.293000
C     -3.968000   64.456000   69.323000
H     -3.508000   64.876000   68.440000
C     -5.189000   63.412000   71.635000
H     -5.663000   63.017000   72.521000
C     -3.382000   64.680000   70.580000
H     -2.472000   65.256000   70.658000
C     -3.992000   64.159000   71.743000
O     -3.421000   64.379000   72.961000
H     -3.930000   64.009000   73.685000
N     -6.731000   66.616000   68.599000
H     -7.384000   66.189000   69.241000
C     -6.293000   67.986000   68.832000
H     -5.789500   68.353700   67.937900
H     -7.165100   68.606200   69.038900
C     -5.331000   68.073000   70.014000
O     -5.621000   67.580000   71.108000
N     -4.176000   68.684000   69.766000
H     -4.009000   69.041000   68.836000
C     -3.139000   68.862000   70.777000
H     -2.935000   67.905000   71.258000
C     -3.611000   69.862000   71.829000
O     -3.873000   71.022000   71.523000
C     -1.846000   69.337000   70.090000
H     -1.968000   70.362000   69.750000
H     -1.670000   68.708000   69.215000
C     -0.592000   69.305000   70.962000
O     -0.684000   69.524000   72.189000
O      0.479000   69.091000   70.359000
N     -3.718000   69.401000   73.069000
H     -3.502000   68.431000   73.252000
C     -4.138000   70.253000   74.176000
H     -4.155600   69.669900   75.096800
H     -5.135100   70.644800   73.974900
H     -3.437200   71.080900   74.283500
C      4.434000   76.317000   69.404000
H      3.931100   76.805300   70.238800
H      4.385700   76.959300   68.524700
H      5.476700   76.135000   69.664100
C      3.750000   74.997000   69.104000
O      4.158000   74.275000   68.191000
N      2.705000   74.688000   69.864000
H      2.415000   75.331000   70.586000
C      1.968000   73.446000   69.682000
H      2.569000   72.814000   69.028000
C      0.621000   73.650000   68.992000
O      0.125000   72.754000   68.310000
C      1.785000   72.733000   71.028000
H      2.763000   72.496000   71.441000
H      1.236000   71.803000   70.874000
O      1.086000   73.538000   71.956000
H      0.166000   73.604000   71.683000
N      0.030000   74.829000   69.167000
H      0.487000   75.534000   69.727000
C     -1.267000   75.123000   68.565000
H     -1.569600   76.135900   68.830600
H     -2.008000   74.413900   68.934100
H     -1.191900   75.038700   67.480900
C      0.196000   76.334000   65.254000
H      0.272200   75.979300   66.281900
H     -0.667700   76.992200   65.159800
H      1.100700   76.882000   64.990700
C      0.031000   75.135000   64.310000
O     -0.076000   75.295000   63.087000
N      0.030000   73.938000   64.893000
H      0.138000   73.887000   65.896000
C     -0.120000   72.702000   64.142000
H      0.083000   72.912000   63.092000
C     -1.546000   72.166000   64.252000
O     -1.942000   71.281000   63.494000
C      0.876000   71.691000   64.698000
H      0.772000   70.782000   64.115000
H      0.608000   71.455000   65.729000
C      2.304000   72.135000   64.659000
C      3.082000   72.407000   65.730000
H      2.765000   72.335000   66.760000
C      3.132000   72.400000   63.489000
N      4.334000   72.799000   65.309000
H      5.059000   73.098000   65.948000
C      4.423000   72.813000   63.933000
C      2.917000   72.323000   62.096000
H      1.959000   71.994000   61.722000
C      5.452000   73.138000   63.038000
H      6.421000   73.448000   63.397000
C      3.943000   72.642000   61.190000
H      3.767000   72.552000   60.129000
C      5.200000   73.060000   61.659000
H      5.980000   73.306000   60.959000
N     -2.314000   72.708000   65.194000
H     -1.926000   73.431000   65.783000
C     -3.702000   72.293000   65.406000
H     -4.132400   72.869200   66.225100
H     -3.730200   71.232000   65.654000
H     -4.276800   72.468900   64.496700
C      1.534000   70.649000   45.435000
H      0.837800   71.480200   45.546700
H      1.023300   69.807700   44.966500
H      2.372200   70.958500   44.810700
C      2.050000   70.230000   46.808000
O      2.853000   69.305000   46.928000
N      1.606000   70.952000   47.832000
H      0.976000   71.718000   47.642000
C      1.983000   70.693000   49.213000
H      3.015000   70.343000   49.210000
C      1.127000   69.600000   49.848000
O     -0.099000   69.593000   49.708000
C      1.888000   71.979000   50.045000
H      0.893000   72.408000   49.911000
H      2.612000   72.698000   49.661000
C      2.128000   71.803000   51.513000
C      1.188000   71.852000   52.484000
H      0.136000   72.037000   52.322000
C      3.385000   71.524000   52.196000
N      1.771000   71.635000   53.713000
H      1.252000   71.661000   54.580000
C      3.129000   71.428000   53.597000
C      4.719000   71.347000   51.768000
H      4.952000   71.405000   50.716000
C      4.149000   71.192000   54.528000
H      3.930000   71.130000   55.582000
C      5.751000   71.119000   52.694000
H      6.768000   70.999000   52.349000
C      5.468000   71.058000   54.069000
H      6.267000   70.918000   54.774000
N      1.790000   68.680000   50.542000
H      2.797000   68.741000   50.588000
C      1.121000   67.585000   51.240000
H      0.039300   67.689000   51.154500
H      1.428200   66.627200   50.820000
C      1.547000   67.680000   52.707000
O      2.688000   67.378000   53.051000
N      0.629000   68.121000   53.561000
H     -0.293000   68.347000   53.216000
C      0.915000   68.288000   54.981000
H      1.830000   68.881000   54.998000
C      1.272000   67.020000   55.756000
O      0.896000   65.910000   55.375000
C     -0.225000   69.054000   55.663000
H     -0.281000   70.046000   55.216000
H      0.034000   69.173000   56.714000
C     -1.602000   68.408000   55.599000
C     -1.872000   67.231000   56.325000
H     -1.104000   66.765000   56.919000
C     -2.629000   69.010000   54.847000
H     -2.437000   69.916000   54.290000
C     -3.148000   66.647000   56.297000
H     -3.340000   65.743000   56.856000
C     -3.916000   68.443000   54.827000
H     -4.705000   68.906000   54.253000
C     -4.178000   67.259000   55.552000
O     -5.420000   66.706000   55.530000
H     -5.454000   65.843000   55.954000
N      2.011000   67.209000   56.848000
H      2.301000   68.146000   57.091000
C      2.410000   66.100000   57.699000
H      3.425000   66.277000   58.055000
H      2.385000   65.180000   57.114000
C      1.487000   65.945000   58.900000
O      0.373000   66.473000   58.908000
N      1.942000   65.212000   59.912000
H      2.860000   64.795000   59.856000
C      1.128000   65.007000   61.098000
H      0.148000   65.449000   60.921000
H      1.609000   65.513000   61.935000
C      0.932000   63.547000   61.472000
O     -0.115000   63.177000   62.010000
N      1.913000   62.713000   61.129000
H      2.711000   63.078000   60.630000
C      1.873000   61.295000   61.449000
H      2.775300   60.812200   61.073600
H      0.997900   60.841900   60.983200
H      1.815900   61.168000   62.530100
C     -1.115000   60.359000   59.264000
H     -0.306500   60.884700   59.771900
H     -1.350000   60.869400   58.330000
H     -0.805700   59.335700   59.051000
C     -2.350000   60.341000   60.158000
O     -3.383000   59.792000   59.770000
N     -2.241000   60.928000   61.351000
H     -1.359000   61.346000   61.613000
C     -3.362000   60.985000   62.293000
H     -4.166000   60.366000   61.895000
C     -3.864000   62.423000   62.443000
O     -4.841000   62.682000   63.150000
C     -2.922000   60.409000   63.650000
H     -2.410000   59.458000   63.494000
H     -3.827000   60.200000   64.212000
C     -2.046000   61.330000   64.491000
C     -2.642000   62.238000   65.387000
H     -3.716000   62.246000   65.508000
C     -0.645000   61.309000   64.358000
H     -0.180000   60.605000   63.687000
C     -1.854000   63.147000   66.113000
H     -2.324000   63.849000   66.783000
C      0.153000   62.215000   65.081000
H      1.225000   62.206000   64.961000
C     -0.450000   63.139000   65.964000
O      0.318000   64.009000   66.680000
H     -0.206000   64.576000   67.251000
N     -3.176000   63.356000   61.793000
H     -2.379000   63.083000   61.236000
C     -3.545000   64.762000   61.865000
H     -4.627000   64.810000   61.738000
C     -2.905000   65.590000   60.761000
O     -2.120000   65.085000   59.953000
C     -3.128000   65.311000   63.250000
H     -3.619000   64.742000   64.038000
H     -3.437000   66.349000   63.350000
O     -1.727000   65.242000   63.440000
H     -1.455000   64.325000   63.332000
N     -3.233000   66.879000   60.762000
H     -3.864000   67.226000   61.470000
C     -2.708000   67.799000   59.772000
H     -2.180000   67.230000   59.006000
H     -2.013000   68.483000   60.259000
C     -3.811000   68.606000   59.112000
O     -4.956000   68.161000   59.037000
N     -3.464000   69.798000   58.635000
H     -2.508000   70.106000   58.739000
C     -4.419000   70.675000   57.967000
H     -5.186000   70.063000   57.493000
C     -3.693000   71.502000   56.916000
O     -2.558000   71.923000   57.132000
C     -5.128000   71.606000   58.972000
H     -5.775000   72.298000   58.432000
H     -4.387000   72.190000   59.517000
O     -5.920000   70.902000   59.909000
H     -5.356000   70.282000   60.381000
N     -4.336000   71.706000   55.769000
H     -5.255000   71.307000   55.643000
C     -3.747000   72.493000   54.685000
H     -4.441000   72.531400   53.845400
H     -2.814200   72.029000   54.364500
H     -3.547000   73.504800   55.037700
C     -5.159000   75.702000   56.161000
H     -4.781400   74.694100   55.988900
H     -5.127100   76.266000   55.228800
H     -6.187400   75.648700   56.518300
C     -4.289000   76.401000   57.211000
O     -4.545000   77.555000   57.553000
N     -3.258000   75.719000   57.708000
H     -3.083000   74.780000   57.379000
C     -2.371000   76.299000   58.721000
H     -3.010000   76.594000   59.553000
C     -1.641000   77.541000   58.214000
O     -1.394000   77.680000   57.016000
C     -1.341000   75.278000   59.247000
H     -0.739000   75.776000   60.009000
H     -0.676000   75.016000   58.422000
C     -1.905000   73.978000   59.849000
H     -2.447000   73.440000   59.078000
C     -0.738000   73.101000   60.322000
H     -0.155000   73.631000   61.072000
H     -0.082000   72.873000   59.489000
H     -1.111000   72.166000   60.743000
C     -2.862000   74.220000   61.020000
H     -2.372000   74.805000   61.798000
H     -3.171000   73.261000   61.437000
H     -3.753000   74.747000   60.680000
N     -1.278000   78.425000   59.141000
H     -1.502000   78.236000   60.108000
C     -0.569000   79.657000   58.812000
H     -0.377700   80.221000   59.724900
H     -1.177500   80.256800   58.135200
H      0.377900   79.413700   58.330100
C      2.837000   78.080000   58.106000
H      1.836300   78.189200   58.524200
H      3.304000   79.061200   58.020200
H      3.437300   77.447900   58.760400
C      2.744000   77.440000   56.728000
O      3.767000   77.224000   56.073000
N      1.523000   77.118000   56.302000
H      0.731000   77.301000   56.902000
C      1.295000   76.508000   54.994000
H      2.271000   76.198000   54.620000
C      0.690000   77.499000   53.999000
O      0.261000   77.105000   52.918000
C      0.461000   75.216000   55.087000
H      0.356000   74.807000   54.081000
H     -0.535000   75.492000   55.436000
C      0.983000   74.088000   55.970000
C      2.305000   74.009000   56.456000
H      3.035000   74.759000   56.202000
C      0.084000   73.061000   56.284000
H     -0.918000   73.112000   55.890000
C      2.688000   72.944000   57.292000
H      3.677000   72.900000   57.701000
C      0.471000   71.985000   57.101000
H     -0.239000   71.225000   57.375000
C      1.780000   71.916000   57.609000
O      2.156000   70.869000   58.399000
H      3.067000   70.925000   58.701000
N      0.654000   78.779000   54.367000
H      1.014000   79.040000   55.274000
C      0.106000   79.817000   53.492000
H      0.175400   80.784800   53.988700
H     -0.938600   79.594400   53.274200
H      0.673200   79.844600   52.561600
C      5.590000   67.544000   51.834000
H      4.617000   67.799300   52.253800
H      5.505800   66.624600   51.254600
H      5.929500   68.352000   51.186000
C      6.587000   67.344000   52.956000
O      7.758000   67.047000   52.710000
N      6.123000   67.501000   54.192000
H      5.150000   67.737000   54.327000
C      6.985000   67.341000   55.356000
H      7.978000   67.066000   55.000000
C      6.502000   66.222000   56.268000
O      5.305000   66.053000   56.475000
C      7.181000   68.683000   56.076000
H      6.217000   69.083000   56.394000
H      7.612000   69.368000   55.347000
C      8.166000   68.643000   57.262000
H      8.484000   69.661000   57.462000
H      9.047000   68.066000   56.978000
C      7.598000   68.104000   58.576000
O      6.363000   67.926000   58.656000
O      8.413000   67.874000   59.495000
N      7.458000   65.481000   56.820000
H      8.419000   65.698000   56.598000
C      7.194000   64.371000   57.729000
H      8.130000   63.853000   57.937000
C      6.255000   63.349000   57.086000
O      6.643000   62.692000   56.120000
C      6.729000   64.879000   59.102000
H      5.761000   65.375000   59.020000
H      7.458000   65.590000   59.478000
O      6.630000   63.812000   60.023000
H      6.999000   64.126000   60.857000
N      5.033000   63.209000   57.608000
H      4.772000   63.765000   58.410000
C      4.065000   62.268000   57.044000
H      3.138800   62.312500   57.617000
H      4.471800   61.257700   57.088800
H      3.863200   62.532700   56.006100
C     -7.405000   55.990000   68.691000
H     -7.680200   56.820300   69.341400
H     -8.159200   55.206400   68.763400
H     -7.343000   56.340500   67.660800
C     -6.046000   55.432000   69.123000
O     -5.542000   54.485000   68.522000
N     -5.471000   56.010000   70.172000
H     -5.959000   56.757000   70.645000
C     -4.158000   55.604000   70.665000
H     -3.546000   55.452000   69.776000
C     -4.113000   54.264000   71.397000
O     -3.050000   53.654000   71.520000
C     -3.569000   56.730000   71.524000
H     -2.551000   56.458000   71.805000
H     -4.153000   56.813000   72.442000
C     -3.527000   58.074000   70.862000
C     -4.469000   59.039000   70.969000
H     -5.374000   58.963000   71.556000
C     -2.515000   58.608000   69.955000
N     -4.116000   60.125000   70.198000
H     -4.689000   60.953000   70.117000
C     -2.916000   59.917000   69.552000
C     -1.299000   58.117000   69.432000
H     -0.961000   57.129000   69.709000
C     -2.149000   60.701000   68.680000
H     -2.490000   61.684000   68.396000
C     -0.519000   58.896000   68.558000
H      0.410000   58.501000   68.177000
C     -0.942000   60.184000   68.182000
H     -0.341000   60.773000   67.508000
N     -5.272000   53.794000   71.846000
H     -6.114000   54.324000   71.675000
C     -5.365000   52.535000   72.579000
H     -6.404400   52.347300   72.848300
H     -4.760500   52.596000   73.484000
H     -4.999500   51.721700   71.952100
C     -4.566000   50.301000   69.577000
H     -4.677800   51.201100   70.181600
H     -4.976200   49.447500   70.116800
H     -5.101000   50.426800   68.635700
C     -3.082000   50.059000   69.292000
O     -2.738000   49.085000   68.619000
N     -2.208000   50.951000   69.761000
H     -2.542000   51.757000   70.269000
C     -0.770000   50.776000   69.548000
H     -0.560000   50.769000   68.478000
C     -0.362000   49.456000   70.195000
O     -0.777000   49.154000   71.315000
C      0.030000   51.938000   70.159000
H      1.052000   51.597000   70.333000
H     -0.403000   52.176000   71.133000
C      0.096000   53.211000   69.296000
H     -0.912000   53.525000   69.019000
C      0.742000   54.313000   70.136000
H      1.725000   53.986000   70.480000
H      0.119000   54.534000   71.003000
H      0.851000   55.217000   69.538000
C      0.936000   53.006000   68.023000
H      1.925000   52.628000   68.285000
H      1.047000   53.954000   67.496000
H      0.448000   52.303000   67.350000
N      0.429000   48.636000   69.484000
C      0.874000   47.342000   70.011000
H      1.503100   46.845700   69.272100
H      0.005700   46.719200   70.226000
H      1.444000   47.499200   70.926700
C      0.944000   48.850000   68.120000
H      1.558300   47.999000   67.825900
H      1.546500   49.758100   68.097400
H      0.108100   48.951200   67.427800
C      4.417000   51.455000   74.670000
H      3.506700   52.031900   74.507000
H      4.645400   51.430000   75.735500
H      4.272800   50.438000   74.305400
C      5.575000   52.107000   73.916000
O      6.709000   51.619000   73.959000
N      5.285000   53.184000   73.196000
H      4.348000   53.562000   73.205000
C      6.320000   53.818000   72.395000
H      7.217000   53.797000   73.013000
C      6.096000   55.282000   72.055000
O      5.065000   55.869000   72.381000
C      6.466000   53.002000   71.105000
H      6.670000   51.975000   71.374000
H      7.283000   53.386000   70.495000
O      5.266000   53.010000   70.361000
H      4.546000   52.752000   70.945000
N      7.101000   55.864000   71.408000
H      7.936000   55.327000   71.223000
C      7.043000   57.245000   70.956000
H      6.074000   57.676000   71.207000
C      7.282000   57.216000   69.446000
O      7.858000   56.255000   68.921000
C      8.074000   58.142000   71.687000
H      8.041000   59.123000   71.210000
C      9.522000   57.617000   71.570000
H      9.766000   57.465000   70.518000
H      9.603000   56.661000   72.080000
C      7.641000   58.347000   73.151000
H      7.719000   57.413000   73.707000
H      6.607000   58.690000   73.184000
H      8.261000   59.103000   73.630000
C     10.577000   58.558000   72.157000
H     10.487000   59.548000   71.709000
H     11.570000   58.158000   71.947000
H     10.458000   58.630000   73.238000
N      6.813000   58.252000   68.754000
H      6.342000   58.994000   69.252000
C      6.953000   58.359000   67.302000
H      6.434000   59.264000   66.986000
C      6.297000   57.171000   66.592000
O      6.844000   56.607000   65.640000
C      8.429000   58.617000   66.915000
H      8.945000   57.665000   66.788000
H      8.910000   59.126000   67.752000
C      8.677000   59.480000   65.680000
C      7.718000   59.620000   64.653000
H      6.782000   59.087000   64.693000
C      9.896000   60.179000   65.574000
H     10.641000   60.088000   66.351000
C      7.964000   60.468000   63.560000
H      7.219000   60.579000   62.786000
C     10.151000   61.011000   64.469000
H     11.084000   61.553000   64.403000
C      9.182000   61.162000   63.463000
H      9.369000   61.813000   62.621000
N      5.138000   56.773000   67.110000
H      4.787000   57.251000   67.927000
C      4.351000   55.680000   66.554000
H      4.695000   55.448000   65.546000
C      2.898000   56.132000   66.543000
O      2.392000   56.681000   67.528000
C      4.529000   54.369000   67.340000
H      3.787000   53.653000   66.986000
H      4.331000   54.552000   68.391000
C      5.915000   53.710000   67.213000
H      5.927000   52.823000   67.844000
H      6.677000   54.394000   67.579000
C      6.263000   53.267000   65.785000
H      6.290000   54.128000   65.120000
H      5.490000   52.586000   65.429000
N      7.562000   52.574000   65.731000
H      7.528000   51.566000   65.703000
C      8.769000   53.156000   65.696000
N      8.920000   54.480000   65.731000
H      8.107000   55.078000   65.792000
H      9.839000   54.891000   65.709000
N      9.858000   52.393000   65.623000
H     10.770000   52.821000   65.590000
H      9.771000   51.389000   65.587000
N      2.242000   55.925000   65.406000
H      2.719000   55.464000   64.644000
C      0.860000   56.340000   65.222000
H      0.455000   56.711000   66.164000
C     -0.016000   55.161000   64.814000
O      0.426000   54.249000   64.118000
C      0.798000   57.467000   64.176000
H     -0.156000   57.988000   64.273000
H      0.828000   57.022000   63.181000
C      1.929000   58.475000   64.285000
C      1.994000   59.335000   65.395000
H      1.213000   59.318000   66.139000
C      2.965000   58.489000   63.330000
H      2.933000   57.817000   62.484000
C      3.084000   60.206000   65.547000
H      3.127000   60.857000   66.402000
C      4.052000   59.368000   63.481000
H      4.847000   59.381000   62.752000
C      4.110000   60.228000   64.589000
H      4.947000   60.899000   64.704000
N     -1.263000   55.189000   65.267000
H     -1.560000   55.987000   65.811000
C     -2.227000   54.119000   65.016000
H     -3.177700   54.368600   65.487100
H     -1.849500   53.184900   65.432000
H     -2.372500   54.005700   63.941700
C     13.094000   66.316000   70.452000
H     13.309000   66.512600   69.401700
H     13.423500   65.309000   70.708000
H     13.622100   67.039900   71.072700
C     11.593000   66.437000   70.695000
O     11.129000   66.253000   71.821000
N     10.840000   66.722000   69.637000
H     11.290000   66.831000   68.740000
C      9.385000   66.885000   69.715000
H      9.206000   67.753000   70.350000
C      8.681000   65.689000   70.350000
O      7.762000   65.847000   71.153000
C      8.824000   67.179000   68.306000
H      8.351000   66.280000   67.907000
H      9.658000   67.407000   67.639000
C      7.834000   68.333000   68.190000
C      7.006000   68.725000   69.264000
H      7.029000   68.197000   70.204000
C      7.743000   69.028000   66.969000
H      8.357000   68.730000   66.132000
C      6.138000   69.822000   69.124000
H      5.513000   70.118000   69.954000
C      6.866000   70.117000   66.826000
H      6.813000   70.642000   65.884000
C      6.067000   70.522000   67.908000
H      5.397000   71.363000   67.805000
N      9.149000   64.496000   70.002000
H      9.945000   64.452000   69.382000
C      8.565000   63.248000   70.475000
H      7.492000   63.415000   70.571000
C      8.984000   62.832000   71.876000
O      8.240000   62.136000   72.568000
C      8.818000   62.152000   69.427000
H      8.269000   61.254000   69.713000
H      9.881000   61.902000   69.424000
C      8.406000   62.560000   68.021000
C      9.316000   63.239000   67.183000
H     10.326000   63.425000   67.515000
C      7.091000   62.333000   67.577000
H      6.384000   61.820000   68.212000
C      8.907000   63.703000   65.921000
H      9.605000   64.227000   65.284000
C      6.686000   62.791000   66.310000
H      5.675000   62.626000   65.974000
C      7.591000   63.477000   65.484000
H      7.277000   63.824000   64.510000
N     10.170000   63.259000   72.293000
H     10.744000   63.811000   71.671000
C     10.661000   62.948000   73.629000
H     11.647400   63.391200   73.765900
H     10.728700   61.866700   73.748600
H      9.974200   63.353500   74.372000
C      8.874000   66.001000   75.026000
H      9.187100   65.631700   74.049400
H      9.541300   65.609100   75.793600
H      8.913100   67.090300   75.032200
C      7.451000   65.543000   75.309000
O      6.895000   65.848000   76.361000
N      6.864000   64.813000   74.364000
H      7.379000   64.584000   73.526000
C      5.496000   64.337000   74.512000
H      5.078000   65.023000   75.249000
C      5.287000   62.959000   75.132000
O      4.178000   62.654000   75.569000
C      4.744000   64.507000   73.189000
H      3.886000   63.834000   73.190000
H      5.397000   64.191000   72.373000
C      4.238000   65.913000   72.904000
C      5.138000   66.975000   72.680000
H      6.198000   66.812000   72.751000
C      2.853000   66.154000   72.828000
H      2.150000   65.352000   73.002000
C      4.666000   68.257000   72.356000
H      5.363000   69.061000   72.177000
C      2.372000   67.434000   72.502000
H      1.308000   67.606000   72.430000
C      3.277000   68.490000   72.258000
O      2.817000   69.724000   71.915000
H      1.862000   69.729000   71.791000
N      6.327000   62.133000   75.207000
H      7.239000   62.419000   74.879000
C      6.121000   60.810000   75.772000
H      7.062200   60.260400   75.762700
H      5.380700   60.272900   75.179000
H      5.765500   60.904400   76.798100
C      9.018000   79.592000   71.279000
H      9.216700   79.366800   70.231200
H      9.637500   80.431800   71.593900
H      7.966200   79.850200   71.402000
C      9.346000   78.367000   72.135000
O      9.192000   78.406000   73.358000
N      9.789000   77.285000   71.502000
H      9.880000   77.303000   70.496000
C     10.147000   76.069000   72.232000
H      9.378000   75.886000   72.983000
C     11.496000   76.243000   72.943000
O     12.319000   77.069000   72.536000
C     10.209000   74.876000   71.272000
H     10.671000   74.041000   71.795000
H     10.847000   75.151000   70.433000
C      8.876000   74.420000   70.758000
C      8.439000   74.539000   69.485000
H      8.988000   75.002000   68.678000
C      7.813000   73.718000   71.473000
N      7.200000   73.952000   69.358000
H      6.694000   73.928000   68.483000
C      6.764000   73.423000   70.552000
C      7.631000   73.293000   72.807000
H      8.402000   73.488000   73.536000
C      5.603000   72.732000   70.930000
H      4.838000   72.507000   70.203000
C      6.458000   72.622000   73.200000
H      6.331000   72.320000   74.228000
C      5.454000   72.328000   72.265000
H      4.571000   71.791000   72.577000
N     11.736000   75.468000   74.018000
C     12.990000   75.549000   74.777000
H     12.963600   74.834300   75.599600
H     13.109400   76.556700   75.174900
H     13.828000   75.316100   74.120100
C     10.847000   74.440000   74.591000
H     11.326900   73.987400   75.458800
H     10.650100   73.672000   73.843000
H      9.907100   74.900800   74.894700
C     12.951000   70.961000   65.756000
H     12.831300   70.196300   66.523500
H     12.475100   71.884500   66.085900
H     14.012300   71.140400   65.584300
C     12.297000   70.486000   64.456000
O     12.299000   71.179000   63.434000
N     11.736000   69.281000   64.542000
H     11.805000   68.800000   65.427000
C     11.031000   68.600000   63.464000
H     11.695000   68.426000   62.617000
C      9.871000   69.465000   62.985000
O      8.911000   69.691000   63.725000
C     10.555000   67.258000   64.022000
H      9.937000   67.423000   64.905000
H     11.431000   66.697000   64.329000
C      9.794000   66.405000   63.051000
N     10.336000   65.683000   62.016000
H     11.302000   65.721000   61.710000
C      8.456000   66.127000   63.090000
H      7.742000   66.530000   63.794000
C      9.346000   64.975000   61.454000
H      9.468000   64.321000   60.603000
N      8.179000   65.200000   62.085000
N      9.990000   69.975000   61.762000
H     10.822000   69.786000   61.222000
C      8.938000   70.801000   61.194000
H      8.032000   70.640000   61.779000
H      8.771000   70.473000   60.168000
C      9.218000   72.290000   61.168000
O      8.437000   73.055000   60.603000
N     10.347000   72.708000   61.732000
H     10.981000   72.036000   62.139000
C     10.678000   74.128000   61.768000
H      9.726000   74.620000   61.571000
C     11.532000   74.689000   60.634000
O     12.211000   75.703000   60.788000
C     11.102000   74.540000   63.187000
H     11.555000   75.531000   63.170000
H     11.853000   73.846000   63.566000
C      9.920000   74.593000   64.133000
C      9.447000   73.419000   64.748000
H      9.938000   72.475000   64.563000
C      9.246000   75.814000   64.333000
H      9.595000   76.713000   63.844000
C      8.320000   73.466000   65.582000
H      7.964000   72.568000   66.058000
C      8.101000   75.864000   65.143000
H      7.578000   76.799000   65.281000
C      7.634000   74.686000   65.767000
O      6.506000   74.720000   66.523000
H      6.088000   75.584000   66.519000
N     11.467000   74.022000   59.488000
H     10.913000   73.178000   59.449000
C     12.162000   74.458000   58.283000
H     12.832800   75.288600   58.502500
H     12.730900   73.637200   57.846100
C     11.041000   74.900000   57.345000
O     11.266000   75.646000   56.392000
N      9.833000   74.420000   57.643000
H      9.745000   73.816000   58.448000
C      8.633000   74.717000   56.873000
H      8.773000   74.297000   55.877000
C      8.422000   76.218000   56.759000
O      8.130000   76.726000   55.679000
C      7.370000   74.019000   57.426000
H      7.215000   74.402000   58.436000
C      7.549000   72.485000   57.494000
H      8.425000   72.251000   58.098000
H      7.723000   72.089000   56.493000
C      6.143000   74.384000   56.567000
H      6.259000   73.998000   55.553000
H      5.988000   75.461000   56.529000
H      5.251000   73.973000   57.009000
C      6.357000   71.755000   58.120000
H      6.063000   72.245000   59.043000
H      6.635000   70.731000   58.351000
H      5.520000   71.738000   57.427000
N      8.583000   76.925000   57.874000
H      8.831000   76.451000   58.731000
C      8.408000   78.371000   57.880000
H      8.584100   78.754100   58.885100
H      7.391700   78.615300   57.571000
H      9.117200   78.825700   57.188400
O      1.781000   65.733000   64.679000
H      1.505000   65.052000   65.297000
H      0.983000   65.948000   64.192000
